pandapower/opf/PpPmInterface/test/data/test_ots.json
{"gen": {"1": {"pg": 0.0, "qg": 0.0, "gen_bus": 4, "vg": 1.0, "qmax": 150.00000001, "gen_status": 1, "qmin": -150.00000001, "pmin": -1e-08, "pmax": 200.00000001, "index": 1, "model": 2, "ncost": 3, "cost": [0, 40.0, 0.0]}, "2": {"pg": 40.0, "qg": 0.0, "gen_bus": 1, "vg": 1.0, "qmax": 30.00000001, "gen_status": 1, "qmin": -30.00000001, "pmin": -1e-08, "pmax": 40.00000001, "index": 2, "model": 2, "ncost": 3, "cost": [0, 14.0, 0.0]}, "3": {"pg": 323.49, "qg": 0.0, "gen_bus": 3, "vg": 1.0, "qmax": 390.00000001, "gen_status": 1, "qmin": -390.00000001, "pmin": -1e-08, "pmax": 520.00000001, "index": 3, "model": 2, "ncost": 3, "cost": [0, 30.0, 0.0]}, "4": {"pg": 466.51, "qg": 0.0, "gen_bus": 5, "vg": 1.0, "qmax": 450.00000001, "gen_status": 1, "qmin": -450.00000001, "pmin": -1e-08, "pmax": 600.00000001, "index": 4, "model": 2, "ncost": 3, "cost": [0, 10.0, 0.0]}, "5": {"pg": 170.0, "qg": 0.0, "gen_bus": 1, "vg": 1.0, "qmax": 127.50000001, "gen_status": 1, "qmin": -127.50000001, "pmin": -1e-08, "pmax": 170.00000001, "index": 5, "model": 2, "ncost": 3, "cost": [0, 15.0, 0.0]}}, "branch": {"1": {"index": 1, "transformer": false, "br_r": 2.8100000000000002e-05, "br_x": 0.000281, "g_fr": -0.0, "g_to": -0.0, "b_fr": 0.3559999999999999, "b_to": 0.3559999999999999, "rate_a": 399.99999999999994, "rate_b": 250.0, "rate_c": 250.0, "f_bus": 1, "t_bus": 2, "br_status": 1, "angmin": -1.0471975511965976, "angmax": 1.0471975511965976, "tap": 1.0, "shift": 0.0}, "2": {"index": 2, "transformer": false, "br_r": 3.04e-05, "br_x": 0.000304, "g_fr": -0.0, "g_to": -0.0, "b_fr": 0.329, "b_to": 0.329, "rate_a": 39836770.202398434, "rate_b": 250.0, "rate_c": 250.0, "f_bus": 1, "t_bus": 4, "br_status": 1, "angmin": -1.0471975511965976, "angmax": 1.0471975511965976, "tap": 1.0, "shift": 0.0}, "3": {"index": 3, "transformer": false, "br_r": 6.4000000000000006e-06, "br_x": 6.4e-05, "g_fr": -0.0, "g_to": -0.0, "b_fr": 1.5630000000000002, "b_to": 1.5630000000000002, "rate_a": 39836770.202398434, "rate_b": 250.0, "rate_c": 250.0, "f_bus": 1, "t_bus": 5, "br_status": 1, "angmin": -1.0471975511965976, "angmax": 1.0471975511965976, "tap": 1.0, "shift": 0.0}, "4": {"index": 4, "transformer": false, "br_r": 1.0800000000000002e-05, "br_x": 0.000108, "g_fr": -0.0, "g_to": -0.0, "b_fr": 0.9259999999999999, "b_to": 0.9259999999999999, "rate_a": 39836770.202398434, "rate_b": 250.0, "rate_c": 250.0, "f_bus": 2, "t_bus": 3, "br_status": 1, "angmin": -1.0471975511965976, "angmax": 1.0471975511965976, "tap": 1.0, "shift": 0.0}, "5": {"index": 5, "transformer": false, "br_r": 2.9699999999999997e-05, "br_x": 0.000297, "g_fr": -0.0, "g_to": -0.0, "b_fr": 0.337, "b_to": 0.337, "rate_a": 39836770.202398434, "rate_b": 250.0, "rate_c": 250.0, "f_bus": 3, "t_bus": 4, "br_status": 1, "angmin": -1.0471975511965976, "angmax": 1.0471975511965976, "tap": 1.0, "shift": 0.0}, "6": {"index": 6, "transformer": false, "br_r": 2.9699999999999997e-05, "br_x": 0.000297, "g_fr": -0.0, "g_to": -0.0, "b_fr": 0.337, "b_to": 0.337, "rate_a": 240.00000000000156, "rate_b": 250.0, "rate_c": 250.0, "f_bus": 4, "t_bus": 5, "br_status": 1, "angmin": -1.0471975511965976, "angmax": 1.0471975511965976, "tap": 1.0, "shift": 0.0}}, "bus": {"1": {"index": 1, "bus_i": 1, "zone": 1, "bus_type": 2, "vmax": 1.1, "vmin": 0.9, "va": 0.0, "vm": 1.0, "base_kv": 230.0}, "2": {"index": 2, "bus_i": 2, "zone": 1, "bus_type": 1, "vmax": 1.1, "vmin": 0.9, "va": 0.0, "vm": 1.0, "base_kv": 230.0}, "3": {"index": 3, "bus_i": 3, "zone": 1, "bus_type": 2, "vmax": 1.1, "vmin": 0.9, "va": 0.0, "vm": 1.0, "base_kv": 230.0}, "4": {"index": 4, "bus_i": 4, "zone": 1, "bus_type": 3, "vmax": 1.00000001, "vmin": 0.99999999, "va": 0.0, "vm": 1.0, "base_kv": 230.0}, "5": {"index": 5, "bus_i": 5, "zone": 1, "bus_type": 2, "vmax": 1.1, "vmin": 0.9, "va": 0.0, "vm": 1.0, "base_kv": 230.0}}, "dcline": {}, "load": {"1": {"pd": 300.0, "qd": 98.61, "load_bus": 2, "status": 1, "index": 1}, "2": {"pd": 300.0, "qd": 98.61, "load_bus": 3, "status": 1, "index": 2}, "3": {"pd": 400.0, "qd": 131.47, "load_bus": 4, "status": 1, "index": 3}}, "storage": {}, "ne_branch": {}, "switch": {}, "baseMVA": 1.0, "source_version": "2.0.0", "shunt": {}, "sourcetype": "matpower", "per_unit": true, "name": "", "pm_solver": "ipopt", "pm_mip_solver": "cbc", "pm_nl_solver": "ipopt", "pm_model": "DCPPowerModel", "pm_log_level": 0, "pm_time_limit": Infinity, "pm_nl_time_limit": Infinity, "pm_mip_time_limit": Infinity, "correct_pm_network_data": true}
